output/Combined/csv/Losses.csv
Element,  Total(W), Total(var),  I2R(W), I2X(var), No-load(W), No-load(var)
Line.M01, 5078.649, 3051.467, 5078.649, 3051.467, 0, 0
Line.M02, 519.7634, 185.5217, 519.7634, 185.5217, 0, 0
Line.LU1, 260.8364, 96.68683, 260.8364, 96.68683, 0, 0
Line.LU2, 372.2302, 119.6545, 372.2302, 119.6545, 0, 0
Line.LU3, 145.1776, 45.81442, 145.1776, 45.81442, 0, 0
Line.LU4, 144.1967, 44.73884, 144.1967, 44.73884, 0, 0
Line.LU5, 239.3729, 58.22858, 239.3729, 58.22858, 0, 0
Line.LU6, 290.2022, 42.35986, 290.2022, 42.35986, 0, 0
Line.LU7, 197.9095, 6.712206, 197.9095, 6.712206, 0, 0
Line.LU8, 163.6322, -16.98382, 163.6322, -16.98382, 0, 0
Line.LU9, 130.4979, -58.08524, 130.4979, -58.08524, 0, 0
Line.LU10, 0.8767624, -0.9504692, 0.8767624, -0.9504692, 0, 0
Line.LU11, 40.26689, -47.10493, 40.26689, -47.10493, 0, 0
Line.LU12, 22.24018, -57.05505, 22.24018, -57.05505, 0, 0
Line.LU13, 0.5980992, -4.178964, 0.5980992, -4.178964, 0, 0
Line.LU14, 1.45627, -32.56272, 1.45627, -32.56272, 0, 0
Line.LU15, 2.651826, -145.5697, 2.651826, -145.5697, 0, 0
Line.LU16, 1.612593, -67.49909, 1.612593, -67.49909, 0, 0
Line.LU17, 0.1440316, -145.3871, 0.1440316, -145.3871, 0, 0
Line.LU18, 2.009053, -73.33156, 2.009053, -73.33156, 0, 0
Line.LU19, 3.547634, -34.39443, 3.547634, -34.39443, 0, 0
Line.LU20, 38.38398, -47.55986, 38.38398, -47.55986, 0, 0
Line.LU21, 32.89473, -30.4447, 32.89473, -30.4447, 0, 0
Line.LU22, 1.663443, -1.197827, 1.663443, -1.197827, 0, 0
Line.LU23, 381.5628, 171.9846, 381.5628, 171.9846, 0, 0
Line.LU24, 17.00426, 8.078836, 17.00426, 8.078836, 0, 0
Line.LU25, 72.30702, 34.35897, 72.30702, 34.35897, 0, 0
Line.LU26, 108.4257, 52.65609, 108.4257, 52.65609, 0, 0
Line.LU27, 320.9184, 155.848, 320.9184, 155.848, 0, 0
Line.LU28, 294.6877, 143.0671, 294.6877, 143.0671, 0, 0
Line.LU29, 623.3485, 304.1221, 623.3485, 304.1221, 0, 0
Line.LU30, 1175.541, 573.1476, 1175.541, 573.1476, 0, 0
Line.LU31, 167.1561, 81.4519, 167.1561, 81.4519, 0, 0
Line.LU32, 3.395924, 0.393632, 3.395924, 0.393632, 0, 0
Line.LU33, 27.2097, -4.901062, 27.2097, -4.901062, 0, 0
Line.LU34, 60.50013, -35.21981, 60.50013, -35.21981, 0, 0
Line.LU35, 12.79439, -22.09443, 12.79439, -22.09443, 0, 0
Line.LU36, 10.3662, -17.89189, 10.3662, -17.89189, 0, 0
Line.LU37, 7.563042, -23.68471, 7.563042, -23.68471, 0, 0
Line.LU38, 4.168348, -13.87267, 4.168348, -13.87267, 0, 0
Line.LU39, 5.810359, -21.17298, 5.810359, -21.17298, 0, 0
Line.LU40, 6.714434, -24.53847, 6.714434, -24.53847, 0, 0
Line.LU41, 0.1885525, -22.71791, 0.1885525, -22.71791, 0, 0
Line.LU42, 0.3180006, -102.8836, 0.3180006, -102.8836, 0, 0
Line.LU43, 4.859803, -73.87719, 4.859803, -73.87719, 0, 0
Line.LU44, 8.750211, -133.184, 8.750211, -133.184, 0, 0
Line.LU45, 6.76221, -102.52, 6.76221, -102.52, 0, 0
Line.LU46, 13.13252, -67.26955, 13.13252, -67.26955, 0, 0
Line.LU47, 1.406778, -18.42427, 1.406778, -18.42427, 0, 0
Line.LU48, 3.55677, -46.56488, 3.55677, -46.56488, 0, 0
Line.LU49, 0.3622295, -16.36442, 0.3622295, -16.36442, 0, 0
Line.LU50, 1.068889, -49.10336, 1.068889, -49.10336, 0, 0
Line.LU51, 0.00005051631, -24.369, 0.00005051631, -24.369, 0, 0
Line.LU52, 2.667383E-6, -8.224548, 2.667383E-6, -8.224548, 0, 0
Line.LU54, 17.61016, -128.6599, 17.61016, -128.6599, 0, 0
Line.LU55, 11.7094, -103.2806, 11.7094, -103.2806, 0, 0
Line.LU56, 3.564226, -123.115, 3.564226, -123.115, 0, 0
Line.LU57, 285.6023, 32.47522, 285.6023, 32.47522, 0, 0
Line.LU58, 229.1756, 26.11807, 229.1756, 26.11807, 0, 0
Line.LU59, 60.92318, 5.34105, 60.92318, 5.34105, 0, 0
Line.LU60, 19.17278, -0.8617624, 19.17278, -0.8617624, 0, 0
Line.LU61, 59.86888, -12.59748, 59.86888, -12.59748, 0, 0
Line.LU62, 9.949137, -6.277458, 9.949137, -6.277458, 0, 0
Line.LU63, 36.00374, -38.52235, 36.00374, -38.52235, 0, 0
Line.LU64, 0.5857394, -19.95081, 0.5857394, -19.95081, 0, 0
Line.LU65, 0.00001221683, -24.64729, 0.00001221683, -24.64729, 0, 0
Line.LU66, 28.82152, -63.38254, 28.82152, -63.38254, 0, 0
Line.LU67, 1.211665, -41.55637, 1.211665, -41.55637, 0, 0
Line.LU68, 5.524613, -61.98434, 5.524613, -61.98434, 0, 0
Line.LU69, 0.00007233434, -131.9637, 0.00007233434, -131.9637, 0, 0
Line.LU70, 1.04695, -49.20413, 1.04695, -49.20413, 0, 0
Line.LU73, -2.265928E-8, -44.94018, -2.265928E-8, -44.94018, 0, 0
Transformer.RAM_MANDIR, 419.3718, 661.7688, 152.9068, 661.7688, 266.465, 0
Transformer.DEMPO_DTC, 271.7204, 8.187174, 1.854123, 8.187174, 269.8663, 7.105427E-15
Transformer.RB_ENGG, 271.1574, 6.136086, 1.380101, 6.136086, 269.7773, 0
Transformer.UNDIR_BAKALE, 419.0905, 663.3877, 153.2811, 663.3877, 265.8094, 0
Transformer.MULEBHAT, 445.379, 779.8026, 180.1863, 779.8026, 265.1927, 0
Transformer.MARUTI_TEMPLE, 394.5751, 558.4441, 129.0271, 558.4441, 265.548, 7.105427E-15
Transformer.CHIKALI, 372.3363, 461.8426, 106.7011, 461.8426, 265.6353, 0
Transformer.ADPAI, 537.7679, 1187.905, 274.5051, 1187.905, 263.2629, 0
Transformer.DURBHAT, 537.7769, 1188.955, 274.7477, 1188.955, 263.0292, 6.883383E-15
Transformer.SEWERAGE, 270.513, 10.40668, 2.367323, 10.40668, 268.1457, -7.105427E-15
Transformer.KASWADA, 504.6333, 1044.415, 241.3425, 1044.415, 263.2908, 7.327472E-15
Transformer.LONDIYAR_WADEM, 537.7834, 1189.688, 274.9172, 1189.688, 262.8662, 0
Transformer.NEW_TALAULIM, 306.0973, 172.1676, 39.75283, 172.1676, 266.3445, -6.994405E-15
Transformer.WADI, 394.0821, 560.4407, 129.4887, 560.4407, 264.5935, 7.105427E-15
Transformer.TALAULIM, 371.8852, 480.456, 107.0006, 480.456, 264.8846, -1.110223E-16
Transformer.MAHALAKSHMI_NAGAR, 537.7846, 1189.816, 274.9469, 1189.816, 262.8377, 7.105427E-15
Transformer.PAUNWADA, 417.875, 981.9668, 154.951, 981.9668, 262.924, -7.105427E-15
Transformer.KAVLE_MATH, 300.9114, 141.7189, 34.24088, 141.7189, 266.6705, -6.994405E-15
Transformer.SHANTADURGA_OLD, 290.7799, 102.8819, 23.73982, 102.8819, 267.0401, 6.994405E-15
Transformer.SANATAN_1, 418.6432, 666.0008, 153.8851, 666.0008, 264.7581, 7.105427E-15
Transformer.SANATAN_2, 268.9832, 0.1801274, 0.003725036, 0.1801274, 268.9795, 7.105427E-15
Transformer.RAMNATHI_DEVASTHAN, 304.6462, 156.0424, 37.61306, 156.0424, 267.0332, 0
Transformer.RAMNATHI, 269.1116, 0.1802133, 0.003726813, 0.1802133, 269.1078, 7.105427E-15
Transformer.RPRS_SCHOOL, 271.6047, 11.39117, 2.594728, 11.39117, 269.0099, 0
Transformer.TOLULEM, 269.978, 0.1812098, 0.003738813, 0.1812098, 269.9743, 7.077672E-15
Transformer.KHARWADA, 82.55514, 0.08557436, 0.001077769, 0.08557436, 82.55406, 6.938894E-18
Transformer.SHANTADURGA_NEW, 657.7336, 1131.209, 188.9563, 1131.209, 468.7773, 0
Transformer.GALSHIRE, 537.7782, 1189.106, 274.7827, 1189.106, 262.9956, 2.220446E-16
Transformer.RAJENDRA_TALAK, 700.5004, 2.135024, 0.2730043, 2.135024, 700.2274, -1.421085E-14
Transformer.RITESH_DEVELOPERS, 475.0119, 5.829397, 0.930677, 5.829397, 474.0812, 0
Transformer.VENKATESH_LEELA, 268.3944, 0.1789789, 0.003716882, 0.1789789, 268.3907, -7.077672E-15
Transformer.PERIGOL, 866.9877, 2374.372, 401.5588, 2374.372, 465.4289, -4.440892E-16
Transformer.MANMOHAN_SINGH, 418.5174, 596.3068, 154.0571, 596.3068, 264.4603, -1.421085E-14
Transformer.DHUMRE, 537.7885, 1190.247, 275.0463, 1190.247, 262.7422, 2.220446E-16
Transformer.SHASHIKALA_PAI, 268.4694, 0.1797833, 0.003717921, 0.1797833, 268.4657, 0
Transformer.KAPILESHWARI, 418.4843, 635.6731, 154.1024, 635.6731, 264.3819, -7.105427E-15
Transformer.MATRUCHAYA, 371.9076, 463.0734, 106.9856, 463.0734, 264.922, 1.110223E-16
Transformer.VAMNESHWAR, 418.4069, 667.4016, 154.209, 667.4016, 264.1979, -1.421085E-14
Transformer.GOLDEN_PROPERTIES, 268.4232, 0.1797524, 0.003717281, 0.1797524, 268.4195, 2.775558E-17
Transformer.RITESH, 268.4232, 0.1797524, 0.003717281, 0.1797524, 268.4195, -7.077672E-15
Transformer.T_SNEH_MANDIR, 394.0831, 560.4366, 129.4877, 560.4366, 264.5954, -1.110223E-16
Transformer.T_RAIGUINIM, 419.7248, 630.4989, 152.4424, 630.4989, 267.2824, 1.110223E-16
Transformer.T_BANDORAPANCHAYAT, 419.6743, 660.0445, 152.5082, 660.0445, 267.1661, -7.105427E-15
Transformer.T_KASHIMATHGROUND, 271.3785, 0.1817314, 0.003758207, 0.1817314, 271.3747, 7.119305E-15
Transformer.T_NAGESHITEMPLE, 395.6535, 541.1921, 128.0388, 541.1921, 267.6147, 7.105427E-15
Transformer.T_DHONSHI, 474.3164, 899.4535, 207.8392, 899.4535, 266.4772, 0
Transformer.T_AGRASHALA, 373.8898, 432.8138, 105.6904, 432.8138, 268.1994, 7.105427E-15
Transformer.T_HINDUJAN, 474.3366, 899.1538, 207.77, 899.1538, 266.5666, 0
Transformer.T_VAGDOR, 271.4882, 0.1818049, 0.003759727, 0.1818049, 271.4845, -7.119305E-15
Transformer.T_MAHALAXMI, 537.6947, 1175.918, 271.7343, 1175.918, 265.9604, -2.220446E-16
Transformer.T_PEARL, 373.8804, 457.4969, 105.6963, 457.4969, 268.1841, 0
Transformer.T_KUNAL, 395.7816, 553.6704, 127.9235, 553.6704, 267.8581, 0
Transformer.T_SHAMRAO, 278.5286, 33.33337, 7.665614, 33.33337, 270.863, 0
Transformer.T_MOGRU, 272.0824, 0.1822028, 0.003767956, 0.1822028, 272.0787, 7.105427E-15
Transformer.T_KONARGAUNEM, 374.2468, 485.2853, 105.4628, 485.2853, 268.784, 0
Transformer.T_MGSCHOOL, 278.0743, 28.04561, 6.577527, 28.04561, 271.4968, 1.421085E-14
Transformer.T_CHAFERAN, 446.2694, 735.853, 178.3941, 735.853, 267.8753, 7.105427E-15
Transformer.T_SHIGUMOMAND, 474.5123, 896.581, 207.1752, 896.581, 267.337, -7.105427E-15
Line.S01, 273.5053, -3934.622, 273.5053, -3934.622, 0, 0
Line.L1, 173.9339, -3696.791, 173.9339, -3696.791, 0, 0
Line.L2, 174.3522, -3847.238, 174.3522, -3847.238, 0, 0
Line.L3, 12.09761, -296.7819, 12.09761, -296.7819, 0, 0
Line.L4, 90.84047, -3901.679, 90.84047, -3901.679, 0, 0
Line.L5, 34.2044, -1500.768, 34.2044, -1500.768, 0, 0
Line.L6, 10.75768, -1451.295, 10.75768, -1451.295, 0, 0
Line.L7, 5.506903, -886.8839, 5.506903, -886.8839, 0, 0
Line.L8, 20.20613, -6853.382, 20.20613, -6853.382, 0, 0
Line.L9, 3.581466, -3788.854, 3.581466, -3788.854, 0, 0
Line.L10, 10.97028, -804.636, 10.97028, -804.636, 0, 0
Line.L11, 7.415236, -3222.64, 7.415236, -3222.64, 0, 0
Line.L12, 1.562805, -224.2274, 1.562805, -224.2274, 0, 0
Line.L13, 2.71567, -1860.148, 2.71567, -1860.148, 0, 0
Line.L14, 29.02037, -1856.371, 29.02037, -1856.371, 0, 0
Line.L15, 26.0761, -7109.421, 26.0761, -7109.421, 0, 0
Line.L16, 0.0188179, -161.5878, 0.0188179, -161.5878, 0, 0
Line.L17, 10.31169, -3997.232, 10.31169, -3997.232, 0, 0
Line.L18, 0.0005439181, -1340.687, 0.0005439181, -1340.687, 0, 0
Line.L19, 19.39971, -2730.672, 19.39971, -2730.672, 0, 0
Line.L20, 3.86521, -279.0293, 3.86521, -279.0293, 0, 0
Line.L21, 36.24978, -963.5159, 36.24978, -963.5159, 0, 0
Line.L22, 4.160313, -1370.905, 4.160313, -1370.905, 0, 0
Line.L23, 0.0000257169, -484.01, 0.0000257169, -484.01, 0, 0
Line.L24, 7.741792, -7508.255, 7.741792, -7508.255, 0, 0
Line.L25, 1.830989, -1290.93, 1.830989, -1290.93, 0, 0
Line.L26, 3.276823, -4517.964, 3.276823, -4517.964, 0, 0
Line.L27, 0.9339664, -6857.144, 0.9339664, -6857.144, 0, 0
Line.L28, 0.2210547, -9922.528, 0.2210547, -9922.528, 0, 0
Line.L29, 162.2856, -5837.137, 162.2856, -5837.137, 0, 0
Line.L30, 40.47957, -9580.808, 40.47957, -9580.808, 0, 0
Line.L31, 14.87928, -3416.089, 14.87928, -3416.089, 0, 0
Line.L32, 5.373132, -2130.78, 5.373132, -2130.78, 0, 0
Line.L33, 27.3422, -3786.47, 27.3422, -3786.47, 0, 0
Line.L34, 59.7027, -14777, 59.7027, -14777, 0, 0
Line.L36, 8.357186, -3228.955, 8.357186, -3228.955, 0, 0
Line.L37, 0.8469014, -9868.042, 0.8469014, -9868.042, 0, 0
Transformer.T1, 282.1708, 61.93304, 13.63393, 61.93304, 268.5369, -6.994405E-15
Transformer.T2, 334.5541, 802.5583, 209.9535, 802.5583, 124.6006, 0
Transformer.T3, 419.1371, 697.8206, 153.9893, 697.8206, 265.1478, -2.220446E-16
Transformer.T4, 133.5559, 24.19684, 6.309278, 24.19684, 127.2466, 3.552714E-15
Transformer.T5, 1361.759, 399.2044, 52.63292, 399.2044, 1309.126, 0
Transformer.T6, 135.3245, 31.48554, 8.21625, 31.48554, 127.1083, 0
Transformer.T7, 305.6403, 174.8521, 38.55791, 174.8521, 267.0823, 7.105427E-15
Transformer.T8, 218.3832, 355.3343, 92.94548, 355.3343, 125.4377, 0
Transformer.T9, 538.3608, 1247.079, 275.2234, 1247.079, 263.1374, 2.220446E-16
Transformer.T10, 301.6911, 578.8804, 114.5895, 578.8804, 187.1016, 3.330669E-15
Transformer.T11, 1150.017, 312.7723, 44.04022, 312.7723, 1105.977, -2.842171E-14
Transformer.T12, 290.5355, 633.5289, 165.73, 633.5289, 124.8055, 0
Transformer.T13, 968.0052, 2644.729, 367.3655, 2644.729, 600.6397, 1.421085E-14
Transformer.T14, 390.4985, 1032.648, 204.4331, 1032.648, 186.0654, -3.330669E-15
Transformer.T15, 624.9939, 101.7727, 14.09304, 101.7727, 610.9008, -1.376677E-14
Transformer.T16, 199.4808, 51.28009, 10.12731, 51.28009, 189.3535, 7.105427E-15
Transformer.T17, 190.3069, 246.3249, 64.42512, 246.3249, 125.8818, -1.110223E-16
Transformer.T18, 135.285, 31.49565, 8.218901, 31.49565, 127.0661, 0
Transformer.T19, 474.2964, 951.4192, 209.9644, 951.4192, 264.3319, 1.398881E-14
Transformer.T20, 197.4732, 39.3704, 7.769214, 39.3704, 189.704, 0
Transformer.T21, 538.3284, 1243.016, 274.3265, 1243.016, 264.002, 0
Transformer.T22, 655.7923, 159.8485, 23.19396, 159.8485, 632.5984, -1.421085E-14
Transformer.T23, 342.7699, 790.0063, 156.3914, 790.0063, 186.3785, 2.220446E-16
Line.F01, 3116.47, 1939.044, 3116.47, 1939.044, 0, 0
Line.F02, 1294.24, 803.0774, 1294.24, 803.0774, 0, 0
Line.F03, 1065.27, 658.2692, 1065.27, 658.2692, 0, 0
Line.F04, 1186.153, 729.5612, 1186.153, 729.5612, 0, 0
Line.F05, 70.87695, 43.36315, 70.87695, 43.36315, 0, 0
Line.F06, 354.3863, 216.821, 354.3863, 216.821, 0, 0
Line.F07, 493.0348, 300.3157, 493.0348, 300.3157, 0, 0
Line.F08, 61.13735, 36.99119, 61.13735, 36.99119, 0, 0
Line.F09, 281.2331, 170.1637, 281.2331, 170.1637, 0, 0
Line.F10, 215.8762, 130.4135, 215.8762, 130.4135, 0, 0
Line.F11, 266.2742, 159.9272, 266.2742, 159.9272, 0, 0
Line.F12, 51.65463, 30.78726, 51.65463, 30.78726, 0, 0
Line.F13, 463.1046, 274.4139, 463.1046, 274.4139, 0, 0
Line.F14, 1.053302, -74.97173, 1.053302, -74.97173, 0, 0
Line.F15, 44.64643, 26.20205, 44.64643, 26.20205, 0, 0
Line.F16, 301.3656, 176.8712, 301.3656, 176.8712, 0, 0
Line.F18, 309.499, 179.9397, 309.499, 179.9397, 0, 0
Line.F19, 304.2593, 175.012, 304.2593, 175.012, 0, 0
Line.F20, 256.7226, 147.6792, 256.7226, 147.6792, 0, 0
Line.F21, 162.8394, 92.41536, 162.8394, 92.41536, 0, 0
Line.F22, 0.07895531, -2.966178, 0.07895531, -2.966178, 0, 0
Line.F23, 0.4224883, -29.90171, 0.4224883, -29.90171, 0, 0
Line.F24, 1.778458E-7, -30.17793, 1.778458E-7, -30.17793, 0, 0
Line.F25, 34.64689, 19.66355, 34.64689, 19.66355, 0, 0
Line.F26, 0.0007960186, -3.016217, 0.0007960186, -3.016217, 0, 0
Line.F27, -1.324837E-6, -3.016739, -1.324837E-6, -3.016739, 0, 0
Line.F28, 12.80893, 5.368243, 12.80893, 5.368243, 0, 0
Line.F29, 31.16197, 2.300026, 31.16197, 2.300026, 0, 0
Line.F30, 25.96908, 1.9193, 25.96908, 1.9193, 0, 0
Line.F31, 23.86639, 0.5447271, 23.86639, 0.5447271, 0, 0
Line.F32, 11.42422, -0.06013672, 11.42422, -0.06013672, 0, 0
Line.F33, 7.914243, -0.8497846, 7.914243, -0.8497846, 0, 0
Line.F34, 5.411282, -2.488018, 5.411282, -2.488018, 0, 0
Line.F35, 29.68497, -33.47616, 29.68497, -33.47616, 0, 0
Line.F36, 26.3424, -35.65118, 26.3424, -35.65118, 0, 0
Line.F37, 26.34713, -35.63539, 26.34713, -35.63539, 0, 0
Line.F38, 98.06576, 34.07168, 98.06576, 34.07168, 0, 0
Line.F39, 49.03435, 17.04076, 49.03435, 17.04076, 0, 0
Line.F40, 94.32235, 31.63688, 94.32235, 31.63688, 0, 0
Line.F41, 65.35761, 12.68557, 65.35761, 12.68557, 0, 0
Line.F42, 28.86415, 1.140619, 28.86415, 1.140619, 0, 0
Line.F43, 41.8397, -1.193258, 41.8397, -1.193258, 0, 0
Line.F44, 2.508199, -1.36638, 2.508199, -1.36638, 0, 0
Line.F45, 4.777106, -20.93809, 4.777106, -20.93809, 0, 0
Line.F46, 2.375624, -58.60363, 2.375624, -58.60363, 0, 0
Line.F47, 2.37736, -58.59786, 2.37736, -58.59786, 0, 0
Line.F48, 99.40076, 36.41626, 99.40076, 36.41626, 0, 0
Line.F49, 3.658304, -24.14156, 3.658304, -24.14156, 0, 0
Line.F50, 1.776863, -44.0665, 1.776863, -44.0665, 0, 0
Line.F51, 7.542057E-7, -75.3806, 7.542057E-7, -75.3806, 0, 0
Line.F52, 75.46763, 15.48241, 75.46763, 15.48241, 0, 0
Line.F53, 41.09978, 7.311379, 41.09978, 7.311379, 0, 0
Line.F54, 0.6972387, -29.68372, 0.6972387, -29.68372, 0, 0
Line.F55, 0.01741772, -3.002561, 0.01741772, -3.002561, 0, 0
Line.F56, 5.828248E-7, -60.27931, 5.828248E-7, -60.27931, 0, 0
Line.F57, 32.92356, 1.962486, 32.92356, 1.962486, 0, 0
Line.F58, 38.15144, -6.664398, 38.15144, -6.664398, 0, 0
Transformer.T24, 429.2484, 682.1205, 429.2484, 682.1205, 0, 0
Transformer.T25, 771.9886, 1226.614, 771.9886, 1226.614, 0, 0
Transformer.T26, 773.1963, 1228.533, 773.1963, 1228.533, 0, 0
Transformer.T27, 431.4124, 685.5575, 431.4124, 685.5575, 0, 0
Transformer.T28, 774.1879, 1230.108, 774.1879, 1230.108, 0, 0
Transformer.T29, 37.24202, 59.35921, 37.24202, 59.35921, 0, 0
Transformer.T30, 345.8484, 549.5871, 345.8484, 549.5871, 0, 0
Transformer.T31, 590.8642, 938.8702, 590.8642, 938.8702, 0, 0
Transformer.T32, 591.3646, 939.6649, 591.3646, 939.6649, 0, 0
Transformer.T33, 582.2268, 925.0998, 582.2268, 925.0998, 0, 0
Transformer.T34, 432.0653, 686.5945, 432.0653, 686.5945, 0, 0
Transformer.T35, 37.37978, 59.57735, 37.37978, 59.57735, 0, 0
Transformer.T36, 346.8591, 551.1922, 346.8591, 551.1922, 0, 0
Transformer.T37, 777.8595, 1235.94, 777.8595, 1235.94, 0, 0
Transformer.T38, 10.49699, 16.77306, 10.49699, 16.77306, 0, 0
Transformer.T39, 778.2655, 1236.585, 778.2655, 1236.585, 0, 0
Transformer.T40, 778.2358, 1236.537, 778.2358, 1236.537, 0, 0
Transformer.T41, 45.90577, 73.53932, 45.90577, 73.53932, 0, 0
Transformer.T42, 14.57232, 23.34434, 14.57232, 23.34434, 0, 0
Transformer.T43, 29.14107, 46.68305, 29.14107, 46.68305, 0, 0
Transformer.T44, 593.1699, 942.5324, 593.1699, 942.5324, 0, 0
Transformer.T45, 778.2344, 1236.535, 778.2344, 1236.535, 0, 0
Transformer.T46, 37.42053, 59.64187, 37.42053, 59.64187, 0, 0
Transformer.T47, 37.4239, 59.6472, 37.4239, 59.6472, 0, 0
Transformer.T48, 57.25973, 91.35321, 57.25973, 91.35321, 0, 0
Transformer.T49, 57.25981, 91.35334, 57.25981, 91.35334, 0, 0
Transformer.T50, 778.6789, 1237.241, 778.6789, 1237.241, 0, 0
Transformer.T51, 29.96908, 47.76521, 29.96908, 47.76521, 0, 0
Transformer.T52, 869.3258, 1381.44, 869.3258, 1381.44, 0, 0
Transformer.T53, 42.09862, 67.26702, 42.09862, 67.26702, 0, 0
Transformer.T54, 779.7931, 1239.011, 779.7931, 1239.011, 0, 0
Transformer.T55, 869.911, 1382.369, 869.911, 1382.369, 0, 0
Transformer.T56, 1370.165, 2177.319, 1370.165, 2177.319, 0, 0
Transformer.T57, 601.5504, 956.0383, 601.5504, 956.0383, 0, 0
Transformer.T58, 780.287, 1239.796, 780.287, 1239.796, 0, 0
Transformer.T59, 2.64836E-9, 0.3889615, 2.64836E-9, 0.3889615, 0, 0
Transformer.T61, 770.9471, 1224.96, 770.9471, 1224.96, 0, 0
Transformer.T62, 433.1019, 688.2407, 433.1019, 688.2407, 0, 0
Line.KF01, 748.9232, 414.4717, 748.9232, 414.4717, 0, 0
Line.KF02, -2.653571E-7, -8.244514, -2.653571E-7, -8.244514, 0, 0
Line.KF03, 114.7605, 63.52193, 114.7605, 63.52193, 0, 0
Line.KF04, 680.824, 370.1753, 680.824, 370.1753, 0, 0
Line.KF05, 309.5226, 166.0498, 309.5226, 166.0498, 0, 0
Line.KF06, 254.2281, 135.9669, 254.2281, 135.9669, 0, 0
Line.KF07, 355.9343, 190.3921, 355.9343, 190.3921, 0, 0
Line.KF08, 0.09795065, -29.59743, 0.09795065, -29.59743, 0, 0
Line.KF09, 0.003281825, -45.32648, 0.003281825, -45.32648, 0, 0
Line.KF10, 0.07216715, -60.49267, 0.07216715, -60.49267, 0, 0
Line.KF11, 3.697041, -0.6220501, 3.697041, -0.6220501, 0, 0
Line.KF12, 73.57979, -12.36017, 73.57979, -12.36017, 0, 0
Line.KF13, 214.2215, 68.92075, 214.2215, 68.92075, 0, 0
Line.KF14, 5.451323, 0.5287467, 5.451323, 0.5287467, 0, 0
Line.KF15, 96.60071, -3.620712, 96.60071, -3.620712, 0, 0
Line.KF16, 1.006511E-6, -7.595437, 1.006511E-6, -7.595437, 0, 0
Line.KF17, 0.5882977, -14.80562, 0.5882977, -14.80562, 0, 0
Line.KF18, 24.42387, -8.16337, 24.42387, -8.16337, 0, 0
Line.KF19, 0.7700234, -1.014773, 0.7700234, -1.014773, 0, 0
Line.KF20, 11.29862, -56.99701, 11.29862, -56.99701, 0, 0
Line.KF21, 5.255212, -72.78754, 5.255212, -72.78754, 0, 0
Line.KF22, 581.5886, 304.5453, 581.5886, 304.5453, 0, 0
Line.KF23, 511.4422, 258.7255, 511.4422, 258.7255, 0, 0
Line.KF24, 2.444816, -1.42842, 2.444816, -1.42842, 0, 0
Line.KF25, 113.1733, 34.71815, 113.1733, 34.71815, 0, 0
Line.KF26, 74.11903, 19.91311, 74.11903, 19.91311, 0, 0
Line.KF27, 125.3095, 9.562637, 125.3095, 9.562637, 0, 0
Line.KF28, 4.049824, -0.3737174, 4.049824, -0.3737174, 0, 0
Line.KF29, 7.262953E-7, -9.0743, 7.262953E-7, -9.0743, 0, 0
Line.KF30, 37.14137, -51.24276, 37.14137, -51.24276, 0, 0
Line.KF31, 28.46357, -56.59666, 28.46357, -56.59666, 0, 0
Line.KF32, 2.296841, -11.66319, 2.296841, -11.66319, 0, 0
Line.KF33, 1.277646, -13.84333, 1.277646, -13.84333, 0, 0
Line.KF34, -4.051821E-7, -15.89017, -4.051821E-7, -15.89017, 0, 0
Line.KF35, 95.17986, -8.757095, 95.17986, -8.757095, 0, 0
Line.KF36, 23.71606, -5.635801, 23.71606, -5.635801, 0, 0
Line.KF37, 19.77436, -11.23562, 19.77436, -11.23562, 0, 0
Line.KF38, 24.72082, -14.03789, 24.72082, -14.03789, 0, 0
Line.KF39, 3.14742E-7, -16.62274, 3.14742E-7, -16.62274, 0, 0
Line.KF40, 7.68678, -23.67372, 7.68678, -23.67372, 0, 0
Line.KF41, 15.78132, -48.58277, 15.78132, -48.58277, 0, 0
Line.KF42, -2.725636E-6, -3.020907, -2.725636E-6, -3.020907, 0, 0
Line.KF43, 3.783937, -21.6895, 3.783937, -21.6895, 0, 0
Line.KF44, 9.46227, -54.21568, 9.46227, -54.21568, 0, 0
Line.KF45, 2.365011, -58.8547, 2.365011, -58.8547, 0, 0
Line.KF46, 7.973194E-7, -75.5007, 7.973194E-7, -75.5007, 0, 0
Line.KF47, 140.7643, 69.67042, 140.7643, 69.67042, 0, 0
Line.KF48, 185.9029, 96.17132, 185.9029, 96.17132, 0, 0
Line.KF49, 1.125921E-7, -36.16629, 1.125921E-7, -36.16629, 0, 0
Line.KF50, 0.4694972, -7.898506, 0.4694972, -7.898506, 0, 0
Line.KF51, 2.157389, -28.67675, 2.157389, -28.67675, 0, 0
Line.KF52, 9.426582, -51.2775, 9.426582, -51.2775, 0, 0
Line.KF53, 0.0449335, -2.991487, 0.0449335, -2.991487, 0, 0
Transformer.T63, 428.4494, 680.8515, 428.4494, 680.8515, 0, 0
Transformer.T65, 18.51351, 29.50938, 18.51351, 29.50938, 0, 0
Transformer.T66, 470.6233, 747.8113, 470.6233, 747.8113, 0, 0
Transformer.T67, 430.399, 683.9479, 430.399, 683.9479, 0, 0
Transformer.T68, 189.0769, 300.5724, 189.0769, 300.5724, 0, 0
Transformer.T69, 772.2133, 1226.971, 772.2133, 1226.971, 0, 0
Transformer.T70, 772.1433, 1226.86, 772.1433, 1226.86, 0, 0
Transformer.T71, 861.2575, 1368.626, 861.2575, 1368.626, 0, 0
Transformer.T72, 861.2514, 1368.616, 861.2514, 1368.616, 0, 0
Transformer.T73, 617.9091, 981.7968, 617.9091, 981.7968, 0, 0
Transformer.T74, 589.6736, 936.9792, 589.6736, 936.9792, 0, 0
Transformer.T75, 774.6068, 1230.773, 774.6068, 1230.773, 0, 0
Transformer.T76, 295.3516, 469.3073, 295.3516, 469.3073, 0, 0
Transformer.T77, 864.4782, 1373.741, 864.4782, 1373.741, 0, 0
Transformer.T78, 775.1179, 1231.585, 775.1179, 1231.585, 0, 0
Transformer.T79, 298.8684, 474.9912, 298.8684, 474.9912, 0, 0
Transformer.T80, 295.3301, 469.273, 295.3301, 469.273, 0, 0
Transformer.T81, 864.4726, 1373.732, 864.4726, 1373.732, 0, 0
Transformer.T82, 620.5232, 985.9491, 620.5232, 985.9491, 0, 0
Transformer.T83, 388.0538, 616.5784, 388.0538, 616.5784, 0, 0
Transformer.T84, 300.3728, 477.4924, 300.3728, 477.4924, 0, 0
Transformer.T85, 943.0338, 1498.76, 943.0338, 1498.76, 0, 0
Transformer.T86, 37.07797, 59.09943, 37.07797, 59.09943, 0, 0
Transformer.T87, 776.9473, 1234.491, 776.9473, 1234.491, 0, 0
Transformer.T88, 776.8854, 1234.392, 776.8854, 1234.392, 0, 0
Transformer.T89, 78.62189, 125.6313, 78.62189, 125.6313, 0, 0
Transformer.T90, 36.87002, 58.82783, 36.87002, 58.82783, 0, 0
Transformer.T91, 20.83901, 33.30137, 20.83901, 33.30137, 0, 0
Line.FF01, 2817.394, 1728.384, 2817.394, 1728.384, 0, 0
Line.FF02, 2088.346, 1275.223, 2088.346, 1275.223, 0, 0
Line.FF03, 4107.285, 2508.798, 4107.285, 2508.798, 0, 0
Line.FF04, 8.385165E-7, -75.71878, 8.385165E-7, -75.71878, 0, 0
Line.FF05, 224.9584, 111.0846, 224.9584, 111.0846, 0, 0
Line.FF06, 32.53703, 18.25843, 32.53703, 18.25843, 0, 0
Line.FF07, 615.9074, 340.1271, 615.9074, 340.1271, 0, 0
Line.FF08, 0.1039835, -27.26393, 0.1039835, -27.26393, 0, 0
Line.FF09, 0.03462648, -100.1935, 0.03462648, -100.1935, 0, 0
Line.FF10, 0.0000159403, -206.3531, 0.0000159403, -206.3531, 0, 0
Line.FF11, 299.5034, 164.1819, 299.5034, 164.1819, 0, 0
Line.FF12, 277.9182, 149.3131, 277.9182, 149.3131, 0, 0
Line.FF13, 193.9008, 104.1865, 193.9008, 104.1865, 0, 0
Line.FF14, 22.48089, 11.68454, 22.48089, 11.68454, 0, 0
Line.FF15, 17.88057, 8.673244, 17.88057, 8.673244, 0, 0
Line.FF16, 262.3992, 120.2528, 262.3992, 120.2528, 0, 0
Line.FF17, 404.5905, 174.027, 404.5905, 174.027, 0, 0
Line.FF18, 43.96311, 18.19001, 43.96311, 18.19001, 0, 0
Line.FF19, -3.626198E-7, -10.58819, -3.626198E-7, -10.58819, 0, 0
Line.FF20, 440.9227, 182.5239, 440.9227, 182.5239, 0, 0
Line.FF21, 191.1192, 78.29815, 191.1192, 78.29815, 0, 0
Line.FF22, 154.508, 60.39481, 154.508, 60.39481, 0, 0
Line.FF23, 255.9734, 98.18815, 255.9734, 98.18815, 0, 0
Line.FF24, 116.3599, 36.98376, 116.3599, 36.98376, 0, 0
Line.FF25, 0.8097336, -49.19578, 0.8097336, -49.19578, 0, 0
Line.FF26, 0.4157996, -47.94514, 0.4157996, -47.94514, 0, 0
Line.FF27, 0.3042362, -139.9275, 0.3042362, -139.9275, 0, 0
Line.FF28, 0.4758586, -219.6697, 0.4758586, -219.6697, 0, 0
Line.FF29, 0.07216998, -33.09935, 0.07216998, -33.09935, 0, 0
Line.FF30, 0.9478378, -23.48915, 0.9478378, -23.48915, 0, 0
Line.FF31, 2.851619E-6, -114.971, 2.851619E-6, -114.971, 0, 0
Line.FF32, 11.77268, 1.679243, 11.77268, 1.679243, 0, 0
Line.FF33, 279.5753, 35.44499, 279.5753, 35.44499, 0, 0
Line.FF34, 4.354146, -1.664119, 4.354146, -1.664119, 0, 0
Line.FF35, 8.950664, -10.69272, 8.950664, -10.69272, 0, 0
Line.FF36, 20.84813, -26.97464, 20.84813, -26.97464, 0, 0
Line.FF37, 1.324507, -6.654796, 1.324507, -6.654796, 0, 0
Line.FF38, 0.3971047, -26.06595, 0.3971047, -26.06595, 0, 0
Line.FF39, 2.569015, -168.2952, 2.569015, -168.2952, 0, 0
Line.FF40, 0.1114763, -46.55437, 0.1114763, -46.55437, 0, 0
Line.FF41, 0.1987396, -35.96845, 0.1987396, -35.96845, 0, 0
Line.FF42, 0.008003557, -30.07665, 0.008003557, -30.07665, 0, 0
Line.FF43, 3.265231, -30.96759, 3.265231, -30.96759, 0, 0
Line.FF44, 0.1364404, -30.00499, 0.1364404, -30.00499, 0, 0
Line.FF45, 0.2468812, -37.45639, 0.2468812, -37.45639, 0, 0
Line.FF46, 0.7586662, -115.3715, 0.7586662, -115.3715, 0, 0
Line.FF47, 3.005897, -75.34151, 3.005897, -75.34151, 0, 0
Transformer.T_HAVELI_PANCHAYAT, 583.1567, 926.6282, 583.1567, 926.6282, 0, 0
Transformer.T93, 431.0345, 684.9573, 431.0345, 684.9573, 0, 0
Transformer.T94, 862.9994, 1371.392, 862.9994, 1371.392, 0, 0
Transformer.T95, 589.8964, 937.333, 589.8964, 937.333, 0, 0
Transformer.T96, 431.8668, 686.2791, 431.8668, 686.2791, 0, 0
Transformer.T97, 216.1899, 343.5469, 216.1899, 343.5469, 0, 0
Transformer.T98, 14.28083, 22.78435, 14.28083, 22.78435, 0, 0
Transformer.T99, 216.6644, 344.3005, 216.6644, 344.3005, 0, 0
Transformer.T100, 14.56206, 23.32817, 14.56206, 23.32817, 0, 0
Transformer.T101, 778.2785, 1236.605, 778.2785, 1236.605, 0, 0
Transformer.T102, 778.6543, 1237.202, 778.6543, 1237.202, 0, 0
Transformer.T103, 9.323456, 15.00568, 9.323456, 15.00568, 0, 0
Transformer.T104, 29.94582, 47.72837, 29.94582, 47.72837, 0, 0
Transformer.T105, 14.33672, 22.87277, 14.33672, 22.87277, 0, 0
Transformer.T106, 601.2634, 955.5827, 601.2634, 955.5827, 0, 0
Transformer.T107, 434.808, 690.9504, 434.808, 690.9504, 0, 0
Transformer.T108, 601.2398, 955.5451, 601.2398, 955.5451, 0, 0
Transformer.T109, 869.7753, 1382.154, 869.7753, 1382.154, 0, 0
Transformer.T110, 869.7935, 1382.183, 869.7935, 1382.183, 0, 0
Transformer.T111, 217.4788, 345.594, 217.4788, 345.594, 0, 0
Transformer.T112, 136.7897, 217.3718, 136.7897, 217.3718, 0, 0
Transformer.T113, 136.785, 217.3642, 136.785, 217.3642, 0, 0
Transformer.T114, 14.01091, 22.54886, 14.01091, 22.54886, 0, 0
Transformer.T116, 10.52707, 16.82057, 10.52707, 16.82057, 0, 0
Transformer.T117, 14.20574, 22.66557, 14.20574, 22.66557, 0, 0
Transformer.T118, 37.14347, 59.20315, 37.14347, 59.20315, 0, 0
Transformer.T119, 773.8709, 1229.604, 773.8709, 1229.604, 0, 0
Transformer.T120, 430.2018, 683.6348, 430.2018, 683.6348, 0, 0
